<routes>
    <!-- Vehicle types used by the simulation -->
    <vType id="hv" length="5" maxSpeed="13.9" accel="2.6" decel="4.5" color="0,0,255"/>
    <vType id="av" length="5" maxSpeed="13.9" accel="2.6" decel="4.5" color="0,255,0"/>
</routes>
