<nodes>
    <node id="A" x="0" y="0"/>
    <node id="B" x="500" y="0"/>
</nodes>