<routes>
    <vType id="car" length="5" maxSpeed="20"/>
    <route id="r0" edges="AB"/>
    <vehicle id="veh0" type="car" route="r0" depart="0"/>
</routes>